Version 4
SHEET 1 3760 824
WIRE -176 -1152 -256 -1152
WIRE 16 -1136 -64 -1136
WIRE -176 -1120 -208 -1120
WIRE 16 -1104 -80 -1104
WIRE -208 -1088 -208 -1120
WIRE -208 -1088 -240 -1088
WIRE 128 -1088 128 -1120
WIRE 160 -1088 128 -1088
WIRE 1536 -1072 272 -1072
WIRE 160 -1056 -64 -1056
WIRE -352 -1024 -352 -1088
WIRE -336 -1024 -352 -1024
WIRE -208 -1024 -240 -1024
WIRE -80 -1008 -80 -1104
WIRE -80 -1008 -96 -1008
WIRE -64 -960 -64 -1056
WIRE -48 -960 -64 -960
WIRE 64 -944 64 -960
WIRE 1504 -912 288 -912
WIRE 64 -896 64 -912
WIRE 272 -800 208 -800
WIRE 400 -800 384 -800
WIRE 400 -768 400 -800
WIRE 272 -736 224 -736
WIRE 400 -736 384 -736
WIRE 528 -736 512 -736
WIRE 1472 -720 640 -720
WIRE 272 -688 240 -688
WIRE 400 -688 400 -704
WIRE 400 -688 384 -688
WIRE 560 -624 512 -624
WIRE 704 -624 672 -624
WIRE 704 -608 704 -624
WIRE 976 -592 816 -592
WIRE 704 -560 704 -576
WIRE 704 -560 656 -560
WIRE 752 -480 688 -480
WIRE 960 -464 864 -464
WIRE 976 -464 976 -592
WIRE 1024 -464 976 -464
WIRE 752 -448 592 -448
WIRE 960 -432 960 -464
WIRE 1024 -432 960 -432
WIRE 1136 -416 1136 -448
WIRE 576 -400 576 -480
WIRE 768 -400 576 -400
WIRE 1440 -400 1248 -400
WIRE 592 -368 592 -448
WIRE 608 -368 592 -368
WIRE 768 -368 720 -368
WIRE 880 -368 880 -384
WIRE 1024 -368 880 -368
WIRE 1136 -352 1136 -384
WIRE 1024 -336 976 -336
WIRE 768 -288 720 -288
WIRE 976 -272 976 -336
WIRE 976 -272 880 -272
WIRE 768 -256 736 -256
WIRE -64 -240 -64 -960
WIRE 208 -240 208 -800
WIRE 208 -240 -64 -240
WIRE 576 -240 576 -400
WIRE 576 -240 208 -240
WIRE 768 -240 576 -240
WIRE -352 -208 -352 -1024
WIRE 176 -208 176 -896
WIRE 176 -208 -352 -208
WIRE 224 -208 224 -736
WIRE 224 -208 176 -208
WIRE 560 -208 224 -208
WIRE 592 -208 592 -368
WIRE 592 -208 560 -208
WIRE 736 -208 736 -256
WIRE 736 -208 592 -208
WIRE -208 -176 -208 -992
WIRE -48 -176 -48 -896
WIRE -48 -176 -208 -176
WIRE 352 -176 -48 -176
WIRE 528 -176 528 -704
WIRE 528 -176 352 -176
WIRE 544 -176 544 -560
WIRE 544 -176 528 -176
WIRE 608 -176 608 -288
WIRE 608 -176 544 -176
WIRE -368 -144 -368 -1152
WIRE 144 -144 -368 -144
WIRE 240 -144 240 -688
WIRE 240 -144 144 -144
WIRE 512 -144 512 -624
WIRE 512 -144 240 -144
WIRE 1408 -144 512 -144
WIRE 1408 -32 1408 -144
WIRE 1440 -32 1440 -400
WIRE 1472 -32 1472 -720
WIRE 1504 -32 1504 -912
WIRE 1536 -32 1536 -1072
WIRE 144 16 144 -144
WIRE 352 16 352 -176
WIRE 560 16 560 -208
WIRE 768 16 768 -240
FLAG 144 96 0
FLAG 352 96 0
FLAG 560 96 0
FLAG 768 96 0
FLAG 1408 32 0
FLAG 1440 32 0
FLAG 1472 32 0
FLAG 1504 32 0
FLAG 1536 32 0
SYMBOL voltage 144 0 R0
WINDOW 123 0 0 Left 0
WINDOW 39 0 0 Left 0
WINDOW 3 24 44 Invisible 2
SYMATTR Value PWL file=s1.txt
SYMATTR InstName V1
SYMBOL voltage 352 0 R0
WINDOW 123 0 0 Left 0
WINDOW 39 0 0 Left 0
WINDOW 3 24 96 Invisible 2
SYMATTR Value PWL file=s2.txt
SYMATTR InstName V2
SYMBOL voltage 560 0 R0
WINDOW 123 0 0 Left 0
WINDOW 39 0 0 Left 0
WINDOW 3 24 96 Invisible 2
SYMATTR Value PWL file=s3.txt
SYMATTR InstName V3
SYMBOL voltage 768 0 R0
WINDOW 123 0 0 Left 0
WINDOW 39 0 0 Left 0
WINDOW 3 24 96 Invisible 2
SYMATTR Value PWL file=s4.txt
SYMATTR InstName V4
SYMBOL Digital\\buf1 1472 -32 R90
WINDOW 0 8 32 Invisible 2
SYMATTR InstName A22
SYMBOL Digital\\buf1 1504 -32 R90
WINDOW 0 8 32 Invisible 2
SYMATTR InstName A23
SYMBOL Digital\\buf1 1536 -32 R90
WINDOW 0 8 32 Invisible 2
SYMATTR InstName A24
SYMBOL Digital\\buf1 1568 -32 R90
WINDOW 0 8 32 Invisible 2
SYMATTR InstName A25
SYMBOL Digital\\buf1 1600 -32 R90
WINDOW 0 8 32 Invisible 2
SYMATTR InstName A26
SYMBOL ZZZ\\LOGIC\\74HC\\74hcu04 -320 -1216 R0
WINDOW 0 -16 32 Invisible 2
SYMATTR InstName U1
SYMBOL ZZZ\\LOGIC\\74HC\\74hcu04 -304 -1152 R0
WINDOW 0 -16 32 Invisible 2
SYMATTR InstName U2
SYMBOL ZZZ\\LOGIC\\74HC\\74hcu04 -304 -1088 R0
WINDOW 0 -16 32 Invisible 2
SYMATTR InstName U3
SYMBOL ZZZ\\LOGIC\\74HC\\74hc08 -128 -1200 R0
WINDOW 0 -16 16 Invisible 2
SYMATTR InstName U4
SYMBOL ZZZ\\LOGIC\\74HC\\74hc08 -160 -1072 R0
WINDOW 0 -16 16 Invisible 2
SYMATTR InstName U5
SYMBOL ZZZ\\LOGIC\\74HC\\74hc32 64 -1184 R0
WINDOW 0 -16 16 Invisible 2
SYMATTR InstName U6
SYMBOL ZZZ\\LOGIC\\74HC\\74hc32 208 -1136 R0
SYMATTR InstName Q4
SYMBOL ZZZ\\LOGIC\\74HC\\74hcu04 0 -1024 R0
WINDOW 0 -16 32 Invisible 2
SYMATTR InstName U8
SYMBOL ZZZ\\LOGIC\\74HC\\74hcu04 0 -960 R0
WINDOW 0 -16 32 Invisible 2
SYMATTR InstName U9
SYMBOL ZZZ\\LOGIC\\74HC\\74hc08 112 -992 R0
WINDOW 0 -16 16 Invisible 2
SYMATTR InstName U10
SYMBOL ZZZ\\LOGIC\\74HC\\74hc32 224 -976 R0
SYMATTR InstName Q3
SYMBOL ZZZ\\LOGIC\\74HC\\74hcu04 320 -864 R0
WINDOW 0 -16 32 Invisible 2
SYMATTR InstName U12
SYMBOL ZZZ\\LOGIC\\74HC\\74hcu04 320 -800 R0
WINDOW 0 -16 32 Invisible 2
SYMATTR InstName U13
SYMBOL ZZZ\\LOGIC\\74HC\\74hcu04 320 -752 R0
WINDOW 0 -16 32 Invisible 2
SYMATTR InstName U14
SYMBOL ZZZ\\LOGIC\\74HC\\74hc11 448 -816 R0
WINDOW 0 -16 16 Invisible 2
SYMATTR InstName U15
SYMBOL ZZZ\\LOGIC\\74HC\\74hc32 576 -784 R0
SYMATTR InstName Q2
SYMBOL ZZZ\\LOGIC\\74HC\\74hc08 752 -656 R0
WINDOW 0 -16 16 Invisible 2
SYMATTR InstName U17
SYMBOL ZZZ\\LOGIC\\74HC\\74hcu04 608 -688 R0
WINDOW 0 -16 32 Invisible 2
SYMATTR InstName U18
SYMBOL ZZZ\\LOGIC\\74HC\\74hcu04 592 -624 R0
WINDOW 0 -16 32 Invisible 2
SYMATTR InstName U19
SYMBOL ZZZ\\LOGIC\\74HC\\74hcu04 624 -544 R0
WINDOW 0 -16 32 Invisible 2
SYMATTR InstName U20
SYMBOL ZZZ\\LOGIC\\74HC\\74hc08 800 -528 R0
WINDOW 0 -16 16 Invisible 2
SYMATTR InstName U21
SYMBOL ZZZ\\LOGIC\\74HC\\74hcu04 656 -432 R0
WINDOW 0 -16 32 Invisible 2
SYMATTR InstName U22
SYMBOL ZZZ\\LOGIC\\74HC\\74hcu04 656 -352 R0
WINDOW 0 -16 32 Invisible 2
SYMATTR InstName U23
SYMBOL ZZZ\\LOGIC\\74HC\\74hc08 816 -448 R0
WINDOW 0 -16 16 Invisible 2
SYMATTR InstName U24
SYMBOL ZZZ\\LOGIC\\74HC\\74hc08 816 -336 R0
WINDOW 0 -16 16 Invisible 2
SYMATTR InstName U25
SYMBOL ZZZ\\LOGIC\\74HC\\74hc32 1072 -512 R0
WINDOW 0 -16 16 Invisible 2
SYMATTR InstName U26
SYMBOL ZZZ\\LOGIC\\74HC\\74hc32 1072 -416 R0
WINDOW 0 -16 16 Invisible 2
SYMATTR InstName U27
SYMBOL ZZZ\\LOGIC\\74HC\\74hc32 1184 -464 R0
SYMATTR InstName Q1
TEXT -424 -240 Left 2 ;D3\nD2\nD1\nD0
TEXT 456 504 Left 2 !.tran 500n
TEXT 1376 72 Left 2 ;Q0 Q1 Q2 Q3 Q4
